tests/data/ieee57.m
function mpc = case57
%CASE57  IEEE 57-bus power flow test case.
%   Standard IEEE 57-bus system: 57 buses, 80 branches, 7 generators.
%   Slack bus: bus 1 (V = 1.04 p.u.)

mpc.version = '2';
mpc.baseMVA = 100;

%% bus data
%   bus_i  type  Pd     Qd    Gs  Bs  area  Vm     Va  baseKV  zone  Vmax  Vmin
mpc.bus = [
    1   3   55.0   17.0   0   0   1   1.040   0   0   1   1.06  0.94;
    2   2    3.0   88.0   0   0   1   1.010   0   0   1   1.06  0.94;
    3   2   41.0   21.0   0   0   1   0.985   0   0   1   1.06  0.94;
    4   1    0.0    0.0   0   0   1   1.000   0   0   1   1.06  0.94;
    5   1   13.0    4.0   0   0   1   1.000   0   0   1   1.06  0.94;
    6   2   75.0    2.0   0   0   1   0.980   0   0   1   1.06  0.94;
    7   1  145.0   53.1   0   0   1   1.000   0   0   1   1.06  0.94;
    8   2  150.0   22.0   0   0   1   1.005   0   0   1   1.06  0.94;
    9   2  121.0   26.0   0   0   1   0.980   0   0   1   1.06  0.94;
   10   1    5.0    2.0   0   0   1   1.000   0   0   1   1.06  0.94;
   11   1    0.0    0.0   0   0   1   1.000   0   0   1   1.06  0.94;
   12   2  377.0   24.4   0   0   1   1.015   0   0   1   1.06  0.94;
   13   1   18.0    2.3   0   0   1   1.000   0   0   1   1.06  0.94;
   14   1   10.5    5.3   0   0   1   1.000   0   0   1   1.06  0.94;
   15   1   22.0    5.0   0   0   1   1.000   0   0   1   1.06  0.94;
   16   1   43.0    3.0   0   0   1   1.000   0   0   1   1.06  0.94;
   17   1   42.0    8.0   0   0   1   1.000   0   0   1   1.06  0.94;
   18   1   27.2    9.8   0   0   1   1.000   0   0   1   1.06  0.94;
   19   1    3.3    0.6   0   0   1   1.000   0   0   1   1.06  0.94;
   20   1    2.3    1.0   0   0   1   1.000   0   0   1   1.06  0.94;
   21   1    0.0    0.0   0   0   1   1.000   0   0   1   1.06  0.94;
   22   1    0.0    0.0   0   0   1   1.000   0   0   1   1.06  0.94;
   23   1    6.3    2.1   0   0   1   1.000   0   0   1   1.06  0.94;
   24   1    0.0    0.0   0   0   1   1.000   0   0   1   1.06  0.94;
   25   1    6.3    3.2   0   0   1   1.000   0   0   1   1.06  0.94;
   26   1    0.0    0.0   0   0   1   1.000   0   0   1   1.06  0.94;
   27   1    9.3    0.5   0   0   1   1.000   0   0   1   1.06  0.94;
   28   1    4.6    2.3   0   0   1   1.000   0   0   1   1.06  0.94;
   29   1   17.0    2.6   0   0   1   1.000   0   0   1   1.06  0.94;
   30   1    3.6    1.8   0   0   1   1.000   0   0   1   1.06  0.94;
   31   1    5.8    2.9   0   0   1   1.000   0   0   1   1.06  0.94;
   32   1    1.6    0.8   0   0   1   1.000   0   0   1   1.06  0.94;
   33   1    3.8    1.9   0   0   1   1.000   0   0   1   1.06  0.94;
   34   1    0.0    0.0   0   0   1   1.000   0   0   1   1.06  0.94;
   35   1    6.0    3.0   0   0   1   1.000   0   0   1   1.06  0.94;
   36   1    0.0    0.0   0   0   1   1.000   0   0   1   1.06  0.94;
   37   1    0.0    0.0   0   0   1   1.000   0   0   1   1.06  0.94;
   38   1   14.0    7.0   0   0   1   1.000   0   0   1   1.06  0.94;
   39   1    0.0    0.0   0   0   1   1.000   0   0   1   1.06  0.94;
   40   1    0.0    0.0   0   0   1   1.000   0   0   1   1.06  0.94;
   41   1    6.3    3.0   0   0   1   1.000   0   0   1   1.06  0.94;
   42   1    7.1    4.4   0   0   1   1.000   0   0   1   1.06  0.94;
   43   1    2.0    1.0   0   0   1   1.000   0   0   1   1.06  0.94;
   44   1   12.0    1.8   0   0   1   1.000   0   0   1   1.06  0.94;
   45   1    0.0    0.0   0   0   1   1.000   0   0   1   1.06  0.94;
   46   1    0.0    0.0   0   0   1   1.000   0   0   1   1.06  0.94;
   47   1   29.7   11.6   0   0   1   1.000   0   0   1   1.06  0.94;
   48   1    0.0    0.0   0   0   1   1.000   0   0   1   1.06  0.94;
   49   1   18.0    8.5   0   0   1   1.000   0   0   1   1.06  0.94;
   50   1   21.0   10.5   0   0   1   1.000   0   0   1   1.06  0.94;
   51   1   18.0    5.3   0   0   1   1.000   0   0   1   1.06  0.94;
   52   1    4.9    2.2   0   0   1   1.000   0   0   1   1.06  0.94;
   53   1   20.0   10.0   0   0   1   1.000   0   0   1   1.06  0.94;
   54   1    4.1    1.4   0   0   1   1.000   0   0   1   1.06  0.94;
   55   1    6.8    3.4   0   0   1   1.000   0   0   1   1.06  0.94;
   56   1    7.6    2.2   0   0   1   1.000   0   0   1   1.06  0.94;
   57   1    6.7    2.0   0   0   1   1.000   0   0   1   1.06  0.94;
];

%% generator data
%   bus  Pg      Qg      Qmax   Qmin   Vg     mBase  status  Pmax   Pmin
mpc.gen = [
    1   128.9   -16.1   200   -140   1.040   100   1   576    0;
    2     0.0    -1.6    50    -17   1.010   100   1   100    0;
    3    40.0    -1.5    60    -10   0.985   100   1   140    0;
    6     0.0    -5.0    25     -8   0.980   100   1   100    0;
    8   450.0    62.1   200   -140   1.005   100   1   550    0;
    9     0.0    -4.0     9     -3   0.980   100   1   100    0;
   12   310.0   128.5   155   -150   1.015   100   1   410    0;
];

%% branch data
%   fbus  tbus    r        x        b      rateA  rateB  rateC  ratio  angle  status
mpc.branch = [
    1    2   0.0083   0.0280   0.0645   250   250   250   0      0   1;
    2    3   0.0298   0.0850   0.0409   250   250   250   0      0   1;
    3    4   0.0112   0.0366   0.0190   250   250   250   0      0   1;
    4    5   0.0625   0.1320   0.0129   250   250   250   0      0   1;
    4    6   0.0430   0.1480   0.0174   250   250   250   0      0   1;
    6    7   0.0200   0.1020   0.0138   250   250   250   0      0   1;
    6    8   0.0339   0.1730   0.0235   250   250   250   0      0   1;
    8    9   0.0099   0.0505   0.0274   250   250   250   0      0   1;
    9   10   0.0369   0.1679   0.0220   250   250   250   0      0   1;
    9   11   0.0258   0.0848   0.0109   250   250   250   0      0   1;
    9   12   0.0648   0.2950   0.0386   250   250   250   0      0   1;
    9   13   0.0481   0.1580   0.0203   250   250   250   0      0   1;
   13   14   0.0132   0.0434   0.0055   250   250   250   0      0   1;
   13   15   0.0269   0.0869   0.0115   250   250   250   0      0   1;
    1   15   0.0178   0.0910   0.0494   250   250   250   0      0   1;
    1   16   0.0454   0.2060   0.0273   250   250   250   0      0   1;
    1   17   0.0238   0.1080   0.0143   250   250   250   0      0   1;
    3   15   0.0162   0.0530   0.0272   250   250   250   0      0   1;
    4   18   0.0000   0.5550   0.0000   250   250   250   0.97   0   1;
    4   18   0.0000   0.4300   0.0000   250   250   250   0.978  0   1;
    5    6   0.0302   0.0641   0.0062   250   250   250   0      0   1;
    7    8   0.0139   0.0712   0.0097   250   250   250   0      0   1;
   10   12   0.0277   0.1262   0.0164   250   250   250   0      0   1;
   11   13   0.0223   0.0732   0.0094   250   250   250   0      0   1;
   12   13   0.0178   0.0580   0.0302   250   250   250   0      0   1;
   12   16   0.0180   0.0813   0.0108   250   250   250   0      0   1;
   12   17   0.0397   0.1790   0.0238   250   250   250   0      0   1;
   14   15   0.0171   0.0547   0.0074   250   250   250   0      0   1;
   18   19   0.4610   0.6850   0.0000   250   250   250   0      0   1;
   19   20   0.2830   0.4340   0.0000   250   250   250   0      0   1;
   21   20   0.0000   0.7767   0.0000   250   250   250   1.043  0   1;
   21   22   0.0736   0.1170   0.0000   250   250   250   0      0   1;
   22   23   0.0099   0.0152   0.0000   250   250   250   0      0   1;
   23   24   0.1660   0.2560   0.0042   250   250   250   0      0   1;
   24   25   0.0000   1.1820   0.0000   250   250   250   1.000  0   1;
   24   25   0.0000   1.2300   0.0000   250   250   250   1.000  0   1;
   24   26   0.0000   0.0473   0.0000   250   250   250   1.043  0   1;
   26   27   0.1650   0.2540   0.0000   250   250   250   0      0   1;
   27   28   0.0618   0.0954   0.0000   250   250   250   0      0   1;
   28   29   0.0418   0.0587   0.0000   250   250   250   0      0   1;
    7   29   0.0000   0.0648   0.0000   250   250   250   0.967  0   1;
   25   30   0.1350   0.2020   0.0000   250   250   250   0      0   1;
   30   31   0.3260   0.4970   0.0000   250   250   250   0      0   1;
   23   32   0.5070   0.7550   0.1740   250   250   250   0      0   1;
   31   32   0.0392   0.0360   0.0000   250   250   250   0      0   1;
   27   32   0.2440   0.3480   0.0000   250   250   250   0      0   1;
   15   33   0.0000   0.1200   0.0000   250   250   250   1.000  0   1;
   34   32   0.0000   0.0953   0.0000   250   250   250   0.975  0   1;
   34   35   0.0520   0.0780   0.0164   250   250   250   0      0   1;
   35   36   0.0430   0.0537   0.0272   250   250   250   0      0   1;
   36   37   0.0290   0.0366   0.0000   250   250   250   0      0   1;
   37   38   0.0651   0.1009   0.0205   250   250   250   0      0   1;
   37   39   0.0239   0.0379   0.0000   250   250   250   0      0   1;
   36   40   0.0000   0.0200   0.0000   250   250   250   0.936  0   1;
   22   38   0.1920   0.2950   0.0000   250   250   250   0      0   1;
   11   41   0.0000   0.7490   0.0000   250   250   250   0.955  0   1;
   41   42   0.2070   0.3520   0.0000   250   250   250   0      0   1;
   41   43   0.0000   0.4120   0.0000   250   250   250   0      0   1;
   38   44   0.0289   0.0585   0.0100   250   250   250   0      0   1;
   15   45   0.0000   0.1042   0.0000   250   250   250   0.955  0   1;
   14   46   0.0000   0.0735   0.0000   250   250   250   0.900  0   1;
   46   47   0.0230   0.0680   0.0032   250   250   250   0      0   1;
   47   48   0.0182   0.0233   0.0000   250   250   250   0      0   1;
   48   49   0.0834   0.1290   0.0140   250   250   250   0      0   1;
   49   50   0.0801   0.1280   0.0000   250   250   250   0      0   1;
   50   51   0.1386   0.2200   0.0000   250   250   250   0      0   1;
   10   51   0.0000   0.0712   0.0000   250   250   250   0.930  0   1;
   13   49   0.0000   0.1910   0.0000   250   250   250   0.895  0   1;
   29   52   0.1442   0.1870   0.0000   250   250   250   0      0   1;
   52   53   0.0762   0.0984   0.0000   250   250   250   0      0   1;
   53   54   0.1878   0.2320   0.0000   250   250   250   0      0   1;
   54   55   0.1732   0.2265   0.0000   250   250   250   0      0   1;
   11   43   0.0000   0.1530   0.0000   250   250   250   0.958  0   1;
   44   45   0.0624   0.1242   0.0204   250   250   250   0      0   1;
   40   56   0.0000   1.1950   0.0000   250   250   250   0.958  0   1;
   56   41   0.5530   0.5490   0.0000   250   250   250   0      0   1;
   56   42   0.2125   0.3540   0.0000   250   250   250   0      0   1;
   39   57   0.0000   1.3550   0.0000   250   250   250   0.980  0   1;
   57   56   0.1740   0.2600   0.0000   250   250   250   0      0   1;
   38   49   0.1150   0.1770   0.0150   250   250   250   0      0   1;
];
